test/system_data/case_9_69.raw
 0,    100.00, 33, 0, 0, 60.00       / October 01, 2013 15:59:49


    1,'Bus1',  16.5000,3,   1,   1,   1,1.04000,   0.0000
    2,'Bus 2',  18.0000,2,   1,   1,   1,1.02500,   9.3507
    3,'Bus 3',  13.8000,2,   1,   1,   1,1.02500,   5.1420
    4,'Bus 4', 230.0000,1,   1,   1,   1,1.02531,  -2.2174
    5,'Bus 5', 230.0000,1,   1,   1,   1,0.99972,  -3.6802
    6,'Bus 6', 230.0000,1,   1,   1,   1,1.01225,  -3.5666
    7,'Bus 7', 230.0000,1,   1,   1,   1,1.02683,   3.7961
    8,'Bus 8', 230.0000,1,   1,   1,   1,1.01727,   1.3373
    9,'Bus 9', 230.0000,1,   1,   1,   1,1.03269,   2.4448
    10, 'BUS 10', 12.7, 1,    1,    1, 1,    1,    0,  1.1,  0.9,  1.1,  0.9
    11, 'BUS 11', 12.7, 1,    1,    1, 1,    1,    0,  1.1,  0.9,  1.1,  0.9
    12, 'BUS 12', 12.7, 1,    1,    1, 1,    1,    0,  1.1,  0.9,  1.1,  0.9
    13, 'BUS 13', 12.7, 1,    1,    1, 1,    1,    0,  1.1,  0.9,  1.1,  0.9
    14, 'BUS 14', 12.7, 1,    1,    1, 1,    1,    0,  1.1,  0.9,  1.1,  0.9
    15, 'BUS 15', 12.7, 1,    1,    1, 1,    1,    0,  1.1,  0.9,  1.1,  0.9
    16, 'BUS 16', 12.7, 1,    1,    1, 1,    1,    0,  1.1,  0.9,  1.1,  0.9
    17, 'BUS 17', 12.7, 1,    1,    1, 1,    1,    0,  1.1,  0.9,  1.1,  0.9
    18, 'BUS 18', 12.7, 1,    1,    1, 1,    1,    0,  1.1,  0.9,  1.1,  0.9
    19, 'BUS 19', 12.7, 1,    1,    1, 1,    1,    0,  1.1,  0.9,  1.1,  0.9
    20, 'BUS 20', 12.7, 1,    1,    1, 1,    1,    0,  1.1,  0.9,  1.1,  0.9
    21, 'BUS 21', 12.7, 1,    1,    1, 1,    1,    0,  1.1,  0.9,  1.1,  0.9
    22, 'BUS 22', 12.7, 1,    1,    1, 1,    1,    0,  1.1,  0.9,  1.1,  0.9
    23, 'BUS 23', 12.7, 1,    1,    1, 1,    1,    0,  1.1,  0.9,  1.1,  0.9
    24, 'BUS 24', 12.7, 1,    1,    1, 1,    1,    0,  1.1,  0.9,  1.1,  0.9
    25, 'BUS 25', 12.7, 1,    1,    1, 1,    1,    0,  1.1,  0.9,  1.1,  0.9
    26, 'BUS 26', 12.7, 1,    1,    1, 1,    1,    0,  1.1,  0.9,  1.1,  0.9
    27, 'BUS 27', 12.7, 1,    1,    1, 1,    1,    0,  1.1,  0.9,  1.1,  0.9
    28, 'BUS 28', 12.7, 1,    1,    1, 1,    1,    0,  1.1,  0.9,  1.1,  0.9
    29, 'BUS 29', 12.7, 1,    1,    1, 1,    1,    0,  1.1,  0.9,  1.1,  0.9
    30, 'BUS 30', 12.7, 1,    1,    1, 1,    1,    0,  1.1,  0.9,  1.1,  0.9
    31, 'BUS 31', 12.7, 1,    1,    1, 1,    1,    0,  1.1,  0.9,  1.1,  0.9
    32, 'BUS 32', 12.7, 1,    1,    1, 1,    1,    0,  1.1,  0.9,  1.1,  0.9
    33, 'BUS 33', 12.7, 1,    1,    1, 1,    1,    0,  1.1,  0.9,  1.1,  0.9
    34, 'BUS 34', 12.7, 1,    1,    1, 1,    1,    0,  1.1,  0.9,  1.1,  0.9
    35, 'BUS 35', 12.7, 1,    1,    1, 1,    1,    0,  1.1,  0.9,  1.1,  0.9
    36, 'BUS 36', 12.7, 1,    1,    1, 1,    1,    0,  1.1,  0.9,  1.1,  0.9
    37, 'BUS 37', 12.7, 1,    1,    1, 1,    1,    0,  1.1,  0.9,  1.1,  0.9
    38, 'BUS 38', 12.7, 1,    1,    1, 1,    1,    0,  1.1,  0.9,  1.1,  0.9
    39, 'BUS 39', 12.7, 1,    1,    1, 1,    1,    0,  1.1,  0.9,  1.1,  0.9
    40, 'BUS 40', 12.7, 1,    1,    1, 1,    1,    0,  1.1,  0.9,  1.1,  0.9
    41, 'BUS 41', 12.7, 1,    1,    1, 1,    1,    0,  1.1,  0.9,  1.1,  0.9
    42, 'BUS 42', 12.7, 1,    1,    1, 1,    1,    0,  1.1,  0.9,  1.1,  0.9
    43, 'BUS 43', 12.7, 1,    1,    1, 1,    1,    0,  1.1,  0.9,  1.1,  0.9
    44, 'BUS 44', 12.7, 1,    1,    1, 1,    1,    0,  1.1,  0.9,  1.1,  0.9
    45, 'BUS 45', 12.7, 1,    1,    1, 1,    1,    0,  1.1,  0.9,  1.1,  0.9
    46, 'BUS 46', 12.7, 1,    1,    1, 1,    1,    0,  1.1,  0.9,  1.1,  0.9
    47, 'BUS 47', 12.7, 1,    1,    1, 1,    1,    0,  1.1,  0.9,  1.1,  0.9
    48, 'BUS 48', 12.7, 1,    1,    1, 1,    1,    0,  1.1,  0.9,  1.1,  0.9
    49, 'BUS 49', 12.7, 1,    1,    1, 1,    1,    0,  1.1,  0.9,  1.1,  0.9
    50, 'BUS 50', 12.7, 1,    1,    1, 1,    1,    0,  1.1,  0.9,  1.1,  0.9
    51, 'BUS 51', 12.7, 1,    1,    1, 1,    1,    0,  1.1,  0.9,  1.1,  0.9
    52, 'BUS 52', 12.7, 1,    1,    1, 1,    1,    0,  1.1,  0.9,  1.1,  0.9
    53, 'BUS 53', 12.7, 1,    1,    1, 1,    1,    0,  1.1,  0.9,  1.1,  0.9
    54, 'BUS 54', 12.7, 1,    1,    1, 1,    1,    0,  1.1,  0.9,  1.1,  0.9
    55, 'BUS 55', 12.7, 1,    1,    1, 1,    1,    0,  1.1,  0.9,  1.1,  0.9
    56, 'BUS 56', 12.7, 1,    1,    1, 1,    1,    0,  1.1,  0.9,  1.1,  0.9
    57, 'BUS 57', 12.7, 1,    1,    1, 1,    1,    0,  1.1,  0.9,  1.1,  0.9
    58, 'BUS 58', 12.7, 1,    1,    1, 1,    1,    0,  1.1,  0.9,  1.1,  0.9
    59, 'BUS 59', 12.7, 1,    1,    1, 1,    1,    0,  1.1,  0.9,  1.1,  0.9
    60, 'BUS 60', 12.7, 1,    1,    1, 1,    1,    0,  1.1,  0.9,  1.1,  0.9
    61, 'BUS 61', 12.7, 1,    1,    1, 1,    1,    0,  1.1,  0.9,  1.1,  0.9
    62, 'BUS 62', 12.7, 1,    1,    1, 1,    1,    0,  1.1,  0.9,  1.1,  0.9
    63, 'BUS 63', 12.7, 1,    1,    1, 1,    1,    0,  1.1,  0.9,  1.1,  0.9
    64, 'BUS 64', 12.7, 1,    1,    1, 1,    1,    0,  1.1,  0.9,  1.1,  0.9
    65, 'BUS 65', 12.7, 1,    1,    1, 1,    1,    0,  1.1,  0.9,  1.1,  0.9
    66, 'BUS 66', 12.7, 1,    1,    1, 1,    1,    0,  1.1,  0.9,  1.1,  0.9
    67, 'BUS 67', 12.7, 1,    1,    1, 1,    1,    0,  1.1,  0.9,  1.1,  0.9
    68, 'BUS 68', 12.7, 1,    1,    1, 1,    1,    0,  1.1,  0.9,  1.1,  0.9
    69, 'BUS 69', 12.7, 1,    1,    1, 1,    1,    0,  1.1,  0.9,  1.1,  0.9
    70, 'BUS 70', 12.7, 1,    1,    1, 1,    1,    0,  1.1,  0.9,  1.1,  0.9
    71, 'BUS 71', 12.7, 1,    1,    1, 1,    1,    0,  1.1,  0.9,  1.1,  0.9
    72, 'BUS 72', 12.7, 1,    1,    1, 1,    1,    0,  1.1,  0.9,  1.1,  0.9
    73, 'BUS 73', 12.7, 1,    1,    1, 1,    1,    0,  1.1,  0.9,  1.1,  0.9
    74, 'BUS 74', 12.7, 1,    1,    1, 1,    1,    0,  1.1,  0.9,  1.1,  0.9
    75, 'BUS 75', 12.7, 1,    1,    1, 1,    1,    0,  1.1,  0.9,  1.1,  0.9
    76, 'BUS 76', 12.7, 1,    1,    1, 1,    1,    0,  1.1,  0.9,  1.1,  0.9
    77, 'BUS 77', 12.7, 1,    1,    1, 1,    1,    0,  1.1,  0.9,  1.1,  0.9
    78, 'BUS 78', 12.7, 1,    1,    1, 1,    1,    0,  1.1,  0.9,  1.1,  0.9
0 / END OF BUS DATA, BEGIN LOAD DATA
    5,'1 ',1,   1,   1,   125.000,    50.000,     0.000,     0.000,     0.000,    -0.000,   1,1
    6,'1 ',1,   1,   1,    90.000,    30.000,     0.000,     0.000,     0.000,    -0.000,   1,1
    8,'1 ',1,   1,   1,   100.000,    35.000,     0.000,     0.000,     0.000,    -0.000,   1,1
    15,  1, 1,    1,    1,    0.0026,    0.0022, 0, 0, 0, 0, 1, 1, 0
    16,  1, 1,    1,    1,    0.0404,   0.03, 0, 0, 0, 0, 1, 1, 0
    17,  1, 1,    1,    1,   0.075,   0.054, 0, 0, 0, 0, 1, 1, 0
    18,  1, 1,    1,    1,   0.03,   0.022, 0, 0, 0, 0, 1, 1, 0
    19,  1, 1,    1,    1,   0.028,   0.019, 0, 0, 0, 0, 1, 1, 0
    20,  1, 1,    1,    1,   0.145,   0.104, 0, 0, 0, 0, 1, 1, 0
    21,  1, 1,    1,    1,   0.145,   0.104, 0, 0, 0, 0, 1, 1, 0
    22,  1, 1,    1,    1,   0.008,    0.0055, 0, 0, 0, 0, 1, 1, 0
    23,  1, 1,    1,    1,   0.008,    0.0055, 0, 0, 0, 0, 1, 1, 0
    25,  1, 1,    1,    1,    0.0455,   0.03, 0, 0, 0, 0, 1, 1, 0
    26,  1, 1,    1,    1,   0.06,   0.035, 0, 0, 0, 0, 1, 1, 0
    27,  1, 1,    1,    1,   0.06,   0.035, 0, 0, 0, 0, 1, 1, 0
    29,  1, 1,    1,    1,   0.001,    0.0006, 0, 0, 0, 0, 1, 1, 0
    30,  1, 1,    1,    1,   0.114,   0.081, 0, 0, 0, 0, 1, 1, 0
    31,  1, 1,    1,    1,    0.0053,    0.0035, 0, 0, 0, 0, 1, 1, 0
    33,  1, 1,    1,    1,   0.028,   0.02, 0, 0, 0, 0, 1, 1, 0
    35,  1, 1,    1,    1,   0.014,   0.01, 0, 0, 0, 0, 1, 1, 0
    36,  1, 1,    1,    1,   0.014,   0.01, 0, 0, 0, 0, 1, 1, 0
    37,  1, 1,    1,    1,   0.026,    0.0186, 0, 0, 0, 0, 1, 1, 0
    38,  1, 1,    1,    1,   0.026,    0.0186, 0, 0, 0, 0, 1, 1, 0
    42,  1, 1,    1,    1,   0.014,   0.01, 0, 0, 0, 0, 1, 1, 0
    43,  1, 1,    1,    1,    0.0195,   0.014, 0, 0, 0, 0, 1, 1, 0
    44,  1, 1,    1,    1,   0.006,   0.004, 0, 0, 0, 0, 1, 1, 0
    45,  1, 1,    1,    1,   0.026,    0.0186, 0, 0, 0, 0, 1, 1, 0
    46,  1, 1,    1,    1,   0.026,    0.0186, 0, 0, 0, 0, 1, 1, 0
    48,  1, 1,    1,    1,   0.024,   0.017, 0, 0, 0, 0, 1, 1, 0
    49,  1, 1,    1,    1,   0.024,   0.017, 0, 0, 0, 0, 1, 1, 0
    50,  1, 1,    1,    1,    0.0012,   0.001, 0, 0, 0, 0, 1, 1, 0
    52,  1, 1,    1,    1,   0.006,    0.0043, 0, 0, 0, 0, 1, 1, 0
    54,  1, 1,    1,    1,    0.0392,    0.0263, 0, 0, 0, 0, 1, 1, 0
    55,  1, 1,    1,    1,    0.0392,    0.0263, 0, 0, 0, 0, 1, 1, 0
    57,  1, 1,    1,    1,   0.079,    0.0564, 0, 0, 0, 0, 1, 1, 0
    58,  1, 1,    1,    1,    0.3847,    0.2745, 0, 0, 0, 0, 1, 1, 0
    59,  1, 1,    1,    1,    0.3847,    0.2745, 0, 0, 0, 0, 1, 1, 0
    60,  1, 1,    1,    1,    0.0405,    0.0283, 0, 0, 0, 0, 1, 1, 0
    61,  1, 1,    1,    1,    0.0036,    0.0027, 0, 0, 0, 0, 1, 1, 0
    62,  1, 1,    1,    1,    0.0043,    0.0035, 0, 0, 0, 0, 1, 1, 0
    63,  1, 1,    1,    1,    0.0264,   0.019, 0, 0, 0, 0, 1, 1, 0
    64,  1, 1,    1,    1,   0.024,    0.0172, 0, 0, 0, 0, 1, 1, 0
    68,  1, 1,    1,    1,   0.1,   0.072, 0, 0, 0, 0, 1, 1, 0
    70,  1, 1,    1,    1,   1.244,   0.888, 0, 0, 0, 0, 1, 1, 0
    71,  1, 1,    1,    1,   0.032,   0.023, 0, 0, 0, 0, 1, 1, 0
    73,  1, 1,    1,    1,   0.227,   0.162, 0, 0, 0, 0, 1, 1, 0
    74,  1, 1,    1,    1,   0.059,   0.042, 0, 0, 0, 0, 1, 1, 0
    75,  1, 1,    1,    1,   0.018,   0.013, 0, 0, 0, 0, 1, 1, 0
    76,  1, 1,    1,    1,   0.018,   0.013, 0, 0, 0, 0, 1, 1, 0
    77,  1, 1,    1,    1,   0.028,   0.02, 0, 0, 0, 0, 1, 1, 0
    78,  1, 1,    1,    1,   0.028,   0.02, 0, 0, 0, 0, 1, 1, 0
0 / END OF LOAD DATA, BEGIN FIXED SHUNT DATA
0 / END OF FIXED SHUNT DATA, BEGIN GENERATOR DATA
    1,'1 ',    71.627,    27.915,  9900.000, -9900.000,1.04000,    0,   500.000,   0.00000,   1.00000,   0.00000,   0.00000,1.00000,1,  100.0,   450.000,     0.000,   1,1.0000,   0,1.0000,   0,1.0000,   0,1.0000,0, 1.0000
    2,'1 ',   163.000,     4.903,  9900.000, -9900.000,1.02500,    0,   250.000,   0.00000,   1.00000,   0.00000,   0.00000,1.00000,1,  100.0,   240.000,     0.000,   1,1.0000,   0,1.0000,   0,1.0000,   0,1.0000,0, 1.0000
    3,'1 ',    85.000,   -11.449,  9900.000, -9900.000,1.02500,    0,   100.000,   0.00000,   1.00000,   0.00000,   0.00000,1.00000,1,  100.0,    90.000,     0.000,   1,1.0000,   0,1.0000,   0,1.0000,   0,1.0000,0, 1.0000
0 / END OF GENERATOR DATA, BEGIN BRANCH DATA
    5,     4,'1 ', 0.01000, 0.06800,0.17600,   0.00,   0.00,   0.00,  0.00000,  0.00000,  0.00000,  0.00000,1,1,   0.0,   1,1.0000,   0,1.0000,   0,1.0000,   0,1.0000
    6,     4,'1 ', 0.01700, 0.09200,0.15800,   0.00,   0.00,   0.00,  0.00000,  0.00000,  0.00000,  0.00000,1,1,   0.0,   1,1.0000,   0,1.0000,   0,1.0000,   0,1.0000
    7,     5,'1 ', 0.03200, 0.16100,0.30600,   0.00,   0.00,   0.00,  0.00000,  0.00000,  0.00000,  0.00000,1,1,   0.0,   1,1.0000,   0,1.0000,   0,1.0000,   0,1.0000
    9,     6,'1 ', 0.03900, 0.17380,0.35800,   0.00,   0.00,   0.00,  0.00000,  0.00000,  0.00000,  0.00000,1,1,   0.0,   1,1.0000,   0,1.0000,   0,1.0000,   0,1.0000
    7,     8,'1 ', 0.00850, 0.05760,0.14900,   0.00,   0.00,   0.00,  0.00000,  0.00000,  0.00000,  0.00000,1,1,   0.0,   1,1.0000,   0,1.0000,   0,1.0000,   0,1.0000
    8,     9,'1 ', 0.01190, 0.10080,0.20900,   0.00,   0.00,   0.00,  0.00000,  0.00000,  0.00000,  0.00000,1,1,   0.0,   1,1.0000,   0,1.0000,   0,1.0000,   0,1.0000
    10,   11, 1, 3.12e-05, 7.487e-05,   0,   999,   999,   999, 0, 0, 0, 0, 1, 1, 0, 1, 1, 0, 1, 0, 1, 0, 1
    11,   12, 1, 3.12e-05, 7.487e-05,   0,   999,   999,   999, 0, 0, 0, 0, 1, 1, 0, 1, 1, 0, 1, 0, 1, 0, 1
    12,   13, 1, 9.359e-05, 0.00022461,   0,   999,   999,   999, 0, 0, 0, 0, 1, 1, 0, 1, 1, 0, 1, 0, 1, 0, 1
    13,   14, 1, 0.00156605, 0.00183434,   0,   999,   999,   999, 0, 0, 0, 0, 1, 1, 0, 1, 1, 0, 1, 0, 1, 0, 1
    14,   15, 1, 0.02283567, 0.01162997,   0,   999,   999,   999, 0, 0, 0, 0, 1, 1, 0, 1, 1, 0, 1, 0, 1, 0, 1
    15,   16, 1, 0.02377779, 0.01211039,   0,   999,   999,   999, 0, 0, 0, 0, 1, 1, 0, 1, 1, 0, 1, 0, 1, 0, 1
    16,   17, 1, 0.00575259, 0.00293245,   0,   999,   999,   999, 0, 0, 0, 0, 1, 1, 0, 1, 1, 0, 1, 0, 1, 0, 1
    17,   18, 1, 0.00307595, 0.00156605,   0,   999,   999,   999, 0, 0, 0, 0, 1, 1, 0, 1, 1, 0, 1, 0, 1, 0, 1
    18,   19, 1, 0.05109948, 0.01688966,   0,   999,   999,   999, 0, 0, 0, 0, 1, 1, 0, 1, 1, 0, 1, 0, 1, 0, 1
    19,   20, 1, 0.01167988, 0.0038621,   0,   999,   999,   999, 0, 0, 0, 0, 1, 1, 0, 1, 1, 0, 1, 0, 1, 0, 1
    20,   21, 1, 0.04438605, 0.01466848,   0,   999,   999,   999, 0, 0, 0, 0, 1, 1, 0, 1, 1, 0, 1, 0, 1, 0, 1
    21,   22, 1, 0.0642643, 0.02121346,   0,   999,   999,   999, 0, 0, 0, 0, 1, 1, 0, 1, 1, 0, 1, 0, 1, 0, 1
    22,   23, 1, 0.0651378, 0.02152542,   0,   999,   999,   999, 0, 0, 0, 0, 1, 1, 0, 1, 1, 0, 1, 0, 1, 0, 1
    23,   24, 1, 0.0660113, 0.02181243,   0,   999,   999,   999, 0, 0, 0, 0, 1, 1, 0, 1, 1, 0, 1, 0, 1, 0, 1
    24,   25, 1, 0.01226637, 0.00405551,   0,   999,   999,   999, 0, 0, 0, 0, 1, 1, 0, 1, 1, 0, 1, 0, 1, 0, 1
    25,   26, 1, 0.02335976, 0.0077242,   0,   999,   999,   999, 0, 0, 0, 0, 1, 1, 0, 1, 1, 0, 1, 0, 1, 0, 1
    26,   27, 1, 0.00029324, 9.983e-05,   0,   999,   999,   999, 0, 0, 0, 0, 1, 1, 0, 1, 1, 0, 1, 0, 1, 0, 1
    27,   28, 1, 0.02043979, 0.00675711,   0,   999,   999,   999, 0, 0, 0, 0, 1, 1, 0, 1, 1, 0, 1, 0, 1, 0, 1
    28,   29, 1, 0.01313987, 0.00434252,   0,   999,   999,   999, 0, 0, 0, 0, 1, 1, 0, 1, 1, 0, 1, 0, 1, 0, 1
    29,   30, 1, 0.02131329, 0.00704412,   0,   999,   999,   999, 0, 0, 0, 0, 1, 1, 0, 1, 1, 0, 1, 0, 1, 0, 1
    30,   31, 1, 0.0008735, 0.00028701,   0,   999,   999,   999, 0, 0, 0, 0, 1, 1, 0, 1, 1, 0, 1, 0, 1, 0, 1
    31,   32, 1, 0.00992665, 0.00328185,   0,   999,   999,   999, 0, 0, 0, 0, 1, 1, 0, 1, 1, 0, 1, 0, 1, 0, 1
    32,   33, 1, 0.02160653, 0.00714394,   0,   999,   999,   999, 0, 0, 0, 0, 1, 1, 0, 1, 1, 0, 1, 0, 1, 0, 1
    33,   34, 1, 0.04671953, 0.01544215,   0,   999,   999,   999, 0, 0, 0, 0, 1, 1, 0, 1, 1, 0, 1, 0, 1, 0, 1
    34,   35, 1, 0.01927305, 0.00637028,   0,   999,   999,   999, 0, 0, 0, 0, 1, 1, 0, 1, 1, 0, 1, 0, 1, 0, 1
    35,   36, 1, 0.01080639, 0.00356885,   0,   999,   999,   999, 0, 0, 0, 0, 1, 1, 0, 1, 1, 0, 1, 0, 1, 0, 1
    12,   37, 1, 0.00027453, 0.00067384,   0,   999,   999,   999, 0, 0, 0, 0, 1, 1, 0, 1, 1, 0, 1, 0, 1, 0, 1
    37,   38, 1, 0.00399312, 0.00976443,   0,   999,   999,   999, 0, 0, 0, 0, 1, 1, 0, 1, 1, 0, 1, 0, 1, 0, 1
    38,   39, 1, 0.02481975, 0.00820462,   0,   999,   999,   999, 0, 0, 0, 0, 1, 1, 0, 1, 1, 0, 1, 0, 1, 0, 1
    39,   40, 1, 0.00437996, 0.00144751,   0,   999,   999,   999, 0, 0, 0, 0, 1, 1, 0, 1, 1, 0, 1, 0, 1, 0, 1
    40,   41, 1, 0.02189978, 0.00723753,   0,   999,   999,   999, 0, 0, 0, 0, 1, 1, 0, 1, 1, 0, 1, 0, 1, 0, 1
    41,   42, 1, 0.05234733, 0.01756974,   0,   999,   999,   999, 0, 0, 0, 0, 1, 1, 0, 1, 1, 0, 1, 0, 1, 0, 1
    42,   43, 1, 0.1065664, 0.03522682,   0,   999,   999,   999, 0, 0, 0, 0, 1, 1, 0, 1, 1, 0, 1, 0, 1, 0, 1
    43,   44, 1, 0.09196659, 0.03040388,   0,   999,   999,   999, 0, 0, 0, 0, 1, 1, 0, 1, 1, 0, 1, 0, 1, 0, 1
    12,   45, 1, 0.00027453, 0.00067384,   0,   999,   999,   999, 0, 0, 0, 0, 1, 1, 0, 1, 1, 0, 1, 0, 1, 0, 1
    45,   46, 1, 0.00399312, 0.00976443,   0,   999,   999,   999, 0, 0, 0, 0, 1, 1, 0, 1, 1, 0, 1, 0, 1, 0, 1
    46,   47, 1, 0.00656993, 0.00767428,   0,   999,   999,   999, 0, 0, 0, 0, 1, 1, 0, 1, 1, 0, 1, 0, 1, 0, 1
    47,   48, 1, 0.00189673, 0.00221493,   0,   999,   999,   999, 0, 0, 0, 0, 1, 1, 0, 1, 1, 0, 1, 0, 1, 0, 1
    48,   49, 1, 0.00011231, 0.00013102,   0,   999,   999,   999, 0, 0, 0, 0, 1, 1, 0, 1, 1, 0, 1, 0, 1, 0, 1
    49,   50, 1, 0.04544048, 0.0530898,   0,   999,   999,   999, 0, 0, 0, 0, 1, 1, 0, 1, 1, 0, 1, 0, 1, 0, 1
    50,   51, 1, 0.01934168, 0.02260481,   0,   999,   999,   999, 0, 0, 0, 0, 1, 1, 0, 1, 1, 0, 1, 0, 1, 0, 1
    51,   52, 1, 0.00255809, 0.00298236,   0,   999,   999,   999, 0, 0, 0, 0, 1, 1, 0, 1, 1, 0, 1, 0, 1, 0, 1
    52,   53, 1, 0.00057401, 0.00072375,   0,   999,   999,   999, 0, 0, 0, 0, 1, 1, 0, 1, 1, 0, 1, 0, 1, 0, 1
    53,   54, 1, 0.00679455, 0.00856649,   0,   999,   999,   999, 0, 0, 0, 0, 1, 1, 0, 1, 1, 0, 1, 0, 1, 0, 1
    54,   55, 1, 5.615e-05, 7.487e-05,   0,   999,   999,   999, 0, 0, 0, 0, 1, 1, 0, 1, 1, 0, 1, 0, 1, 0, 1
    13,   56, 1, 0.00021213, 0.0005241,   0,   999,   999,   999, 0, 0, 0, 0, 1, 1, 0, 1, 1, 0, 1, 0, 1, 0, 1
    56,   57, 1, 0.0053096, 0.01299636,   0,   999,   999,   999, 0, 0, 0, 0, 1, 1, 0, 1, 1, 0, 1, 0, 1, 0, 1
    57,   58, 1, 0.01808135, 0.04424254,   0,   999,   999,   999, 0, 0, 0, 0, 1, 1, 0, 1, 1, 0, 1, 0, 1, 0, 1
    58,   59, 1, 0.00512867, 0.01254714,   0,   999,   999,   999, 0, 0, 0, 0, 1, 1, 0, 1, 1, 0, 1, 0, 1, 0, 1
    17,   60, 1, 0.00579003, 0.00295117,   0,   999,   999,   999, 0, 0, 0, 0, 1, 1, 0, 1, 1, 0, 1, 0, 1, 0, 1
    60,   61, 1, 0.02070808, 0.00695053,   0,   999,   999,   999, 0, 0, 0, 0, 1, 1, 0, 1, 1, 0, 1, 0, 1, 0, 1
    18,   62, 1, 0.0108563, 0.00552798,   0,   999,   999,   999, 0, 0, 0, 0, 1, 1, 0, 1, 1, 0, 1, 0, 1, 0, 1
    62,   63, 1, 0.01266568, 0.00645139,   0,   999,   999,   999, 0, 0, 0, 0, 1, 1, 0, 1, 1, 0, 1, 0, 1, 0, 1
    63,   64, 1, 0.01773196, 0.0090282,   0,   999,   999,   999, 0, 0, 0, 0, 1, 1, 0, 1, 1, 0, 1, 0, 1, 0, 1
    64,   65, 1, 0.01755102, 0.00894085,   0,   999,   999,   999, 0, 0, 0, 0, 1, 1, 0, 1, 1, 0, 1, 0, 1, 0, 1
    65,   66, 1, 0.09920412, 0.03329889,   0,   999,   999,   999, 0, 0, 0, 0, 1, 1, 0, 1, 1, 0, 1, 0, 1, 0, 1
    66,   67, 1, 0.04889702, 0.01640924,   0,   999,   999,   999, 0, 0, 0, 0, 1, 1, 0, 1, 1, 0, 1, 0, 1, 0, 1
    67,   68, 1, 0.01897981, 0.00627669,   0,   999,   999,   999, 0, 0, 0, 0, 1, 1, 0, 1, 1, 0, 1, 0, 1, 0, 1
    68,   69, 1, 0.02408976, 0.0073124,   0,   999,   999,   999, 0, 0, 0, 0, 1, 1, 0, 1, 1, 0, 1, 0, 1, 0, 1
    69,   70, 1, 0.03166421, 0.01612847,   0,   999,   999,   999, 0, 0, 0, 0, 1, 1, 0, 1, 1, 0, 1, 0, 1, 0, 1
    70,   71, 1, 0.00607703, 0.00309467,   0,   999,   999,   999, 0, 0, 0, 0, 1, 1, 0, 1, 1, 0, 1, 0, 1, 0, 1
    71,   72, 1, 0.00904692, 0.00460457,   0,   999,   999,   999, 0, 0, 0, 0, 1, 1, 0, 1, 1, 0, 1, 0, 1, 0, 1
    72,   73, 1, 0.04432989, 0.02257986,   0,   999,   999,   999, 0, 0, 0, 0, 1, 1, 0, 1, 1, 0, 1, 0, 1, 0, 1
    73,   74, 1, 0.06495062, 0.03308052,   0,   999,   999,   999, 0, 0, 0, 0, 1, 1, 0, 1, 1, 0, 1, 0, 1, 0, 1
    20,   75, 1, 0.01255338, 0.00381218,   0,   999,   999,   999, 0, 0, 0, 0, 1, 1, 0, 1, 1, 0, 1, 0, 1, 0, 1
    75,   76, 1, 0.00029324, 8.735e-05,   0,   999,   999,   999, 0, 0, 0, 0, 1, 1, 0, 1, 1, 0, 1, 0, 1, 0, 1
    21,   77, 1, 0.04613304, 0.01524873,   0,   999,   999,   999, 0, 0, 0, 0, 1, 1, 0, 1, 1, 0, 1, 0, 1, 0, 1
    77,   78, 1, 0.00029324, 9.983e-05,   0,   999,   999,   999, 0, 0, 0, 0, 1, 1, 0, 1, 1, 0, 1, 0, 1, 0, 1
0 / END OF BRANCH DATA, BEGIN TRANSFORMER DATA
    4,    1,    0,'1 ',1,1,1,  0.00000,  0.00000,2,'        ',1,   1,1.0000,   0,1.0000,   0,1.0000,   0,1.0000
 0.00000, 0.05760, 100.00
1.00000,  0.000,   0.000,   0.00,   0.00,   0.00,0,     0, 1.50000, 0.51000, 1.50000, 0.51000,159, 0, 0.00000, 0.00000
1.00000,  0.000
    2,    7,    0,'1 ',1,1,1,  0.00000,  0.00000,2,'        ',1,   1,1.0000,   0,1.0000,   0,1.0000,   0,1.0000
 0.00000, 0.06250, 100.00
1.00000,  0.000,   0.000,   0.00,   0.00,   0.00,0,     2, 1.10000, 0.90000, 1.00000, 0.99000, 33, 0, 0.00000, 0.00000
1.00000,  0.000
    9,    3,    0,'1 ',1,1,1,  0.00000,  0.00000,2,'        ',1,   1,1.0000,   0,1.0000,   0,1.0000,   0,1.0000
 0.00000, 0.05860, 100.00
1.00000,  0.000,   0.000,   0.00,   0.00,   0.00,0,     9, 1.10000, 0.90000, 1.00000, 0.99000, 33, 0, 0.00000, 0.00000
1.00000,  0.000
    5,    10,    0,'1 ',1,1,1,  0.00000,  0.00000,2,'        ',1,   1,1.0000,   0,1.0000,   0,1.0000,   0,1.0000
 0.00000, 0.05860, 100.00
1.00000,  0.000,   0.000,   0.00,   0.00,   0.00,0,     9, 1.10000, 0.90000, 1.00000, 0.99000, 33, 0, 0.00000, 0.00000
1.00000,  0.000
0 / END OF TRANSFORMER DATA, BEGIN AREA DATA
   1,    0,     0.000,     1.000,'1           '
0 / END OF AREA DATA, BEGIN TWO-TERMINAL DC DATA
0 / END OF TWO-TERMINAL DC DATA, BEGIN VOLTAGE SOURCE CONVERTER DATA
0 / END OF VOLTAGE SOURCE CONVERTER DATA, BEGIN IMPEDANCE CORRECTION DATA
0 / END OF IMPEDANCE CORRECTION DATA, BEGIN MULTI-TERMINAL DC DATA
0 / END OF MULTI-TERMINAL DC DATA, BEGIN MULTI-SECTION LINE DATA
0 / END OF MULTI-SECTION LINE DATA, BEGIN ZONE DATA
   1,'1       '
0 / END OF ZONE DATA, BEGIN INTER-AREA TRANSFER DATA
0 / END OF INTER-AREA TRANSFER DATA, BEGIN OWNER DATA
    1,'1'
0 / END OF OWNER DATA, BEGIN FACTS CONTROL DEVICE DATA
0 / END OF FACTS CONTROL DEVICE DATA, BEGIN SWITCHED SHUNT DATA
0 /END OF SWITCHED SHUNT DATA, BEGIN GNE DEVICE DATA
0 /END OF GNE DEVICE DATA
Q